/*--------------------------------*- C++ -*----------------------------------*\
| =========                 |                                                 |
| \\      /  F ield         | OpenFOAM: The Open Source CFD Toolbox           |
|  \\    /   O peration     | Version:  3.0.1                                 |
|   \\  /    A nd           | Web:      www.OpenFOAM.org                      |
|    \\/     M anipulation  |                                                 |
\*---------------------------------------------------------------------------*/
FoamFile
{
    version     2.0;
    format      ascii;
    class       dictionary;
    object      controlDict;
}

//example: execFlowFunctionObjects -region subsurface -dict system/integrateDict -noFlow

functions
{
    flux
    {
        type            faceSource;
        functionObjectLibs ("libfieldFunctionObjects.so");

        enabled         true;
        outputControl   outputTime;
        surfaceFormat   off;

        // Output to log&file (true) or to file only
        log             true;
        // Output field values as well
        valueOutput     true;
        // Type of source: patch/faceZone/sampledSurface
        region          subsurface;
        source          patch;
        sourceName      top;

        operation       areaNormalIntegrate;
        fields
        (
            U
        );
    }
}

