/*--------------------------------*- C++ -*----------------------------------*\
| =========                 |                                                 |
| \\      /  F ield         | OpenFOAM: The Open Source CFD Toolbox           |
|  \\    /   O peration     | Version:  5                                     |
|   \\  /    A nd           | Web:      www.OpenFOAM.org                      |
|    \\/     M anipulation  |                                                 |
\*---------------------------------------------------------------------------*/
FoamFile
{
    version     2.0;
    format      ascii;
    class       dictionary;
    location    "constant/subsurface";
    object      chemistryProperties;
}
// * * * * * * * * * * * * * * * * * * * * * * * * * * * * * * * * * * * * * //

chemistryType
{
    chemistrySolver   ode;
}

chemistry           on;

initialChemicalTimeStep 1e-05;

EulerImplicitCoeffs
{
    cTauChem        1;
    equilibriumRateLimiter off;
}

odeCoeffs
{
    solver          RKF45;  
    absTol          1e-12;
    relTol          0.01;
}

// ************************************************************************* //
