/*--------------------------------*- C++ -*----------------------------------*\
| =========                 |                                                 |
| \\      /  F ield         | OpenFOAM: The Open Source CFD Toolbox           |
|  \\    /   O peration     | Version:  5.x                                   |
|   \\  /    A nd           | Web:      www.OpenFOAM.org                      |
|    \\/     M anipulation  |                                                 |
\*---------------------------------------------------------------------------*/
FoamFile
{
    version     2.0;
    format      ascii;
    class       dictionary;
    object      thermodynamicProperties;
}
/* * * * * * * * * * * * * * * * * * * * * * * * * * * * * * * * * * */

chemistryReader foamChemistryReader;
foamChemistryFile "$FOAM_CASE/constant/subsurface/reactions";
foamChemistryThermoFile "$FOAM_CASE/constant/subsurface/thermo.species";

/*********************************************************************/
