/*--------------------------------*- C++ -*----------------------------------*\ 
 =========                 |
 \      /  F ield         | OpenFOAM: The Open Source CFD Toolbox 
  \    /   O peration     | 
   \  /    A nd           | Web:      www.OpenFOAM.org 
    \/     M anipulation  | 
\*---------------------------------------------------------------------------*/ 
FoamFile 
{  
   version 2.0;
   format  ascii;
   class   dictionary;
   object  blockMeshDict;
}
//********************************************************************************//
//block definition for a porosity with an angled inlet/outlet
//the porosity is not aligned with the main axes
// 
//total long 1070 cm 
//height 20 cm 
// dune number 100 
 
convertToMeters 0.01;

vertices
(
   (0   9.9   0)//pt 0
   (12.0 11.5 0) //pt 0.0
   (15.2 9.9 0) //pt 0.0
   (27.2 11.5 0) //pt 1.0
   (30.4 9.9 0) //pt 1.0
   (42.4 11.5 0) //pt 2.0
   (45.6 9.9 0) //pt 2.0
   (57.6 11.5 0) //pt 3.0
   (60.8 9.9 0) //pt 3.0
   (72.8 11.5 0) //pt 4.0
   (76.0 9.9 0) //pt 4.0
   (88.0 11.5 0) //pt 5.0
   (91.2 9.9 0) //pt 5.0
   (103.2 11.5 0) //pt 6.0
   (106.4 9.9 0) //pt 6.0
   (118.4 11.5 0) //pt 7.0
   (121.6 9.9 0) //pt 7.0
   (133.6 11.5 0) //pt 8.0
   (136.8 9.9 0) //pt 8.0
   (148.8 11.5 0) //pt 9.0
   (152.0 9.9 0) //pt 9.0
   (164.0 11.5 0) //pt 10.0
   (167.2 9.9 0) //pt 10.0
   (179.2 11.5 0) //pt 11.0
   (182.4 9.9 0) //pt 11.0
   (194.4 11.5 0) //pt 12.0
   (197.6 9.9 0) //pt 12.0
   (209.6 11.5 0) //pt 13.0
   (212.8 9.9 0) //pt 13.0
   (224.8 11.5 0) //pt 14.0
   (228.0 9.9 0) //pt 14.0
   (240.0 11.5 0) //pt 15.0
   (243.2 9.9 0) //pt 15.0
   (255.2 11.5 0) //pt 16.0
   (258.4 9.9 0) //pt 16.0
   (270.4 11.5 0) //pt 17.0
   (273.6 9.9 0) //pt 17.0
   (285.6 11.5 0) //pt 18.0
   (288.8 9.9 0) //pt 18.0
   (300.8 11.5 0) //pt 19.0
   (304.0 9.9 0) //pt 19.0
   (316.0 11.5 0) //pt 20.0
   (319.2 9.9 0) //pt 20.0
   (331.2 11.5 0) //pt 21.0
   (334.4 9.9 0) //pt 21.0
   (346.4 11.5 0) //pt 22.0
   (349.6 9.9 0) //pt 22.0
   (361.6 11.5 0) //pt 23.0
   (364.8 9.9 0) //pt 23.0
   (376.8 11.5 0) //pt 24.0
   (380.0 9.9 0) //pt 24.0
   (392.0 11.5 0) //pt 25.0
   (395.2 9.9 0) //pt 25.0
   (407.2 11.5 0) //pt 26.0
   (410.4 9.9 0) //pt 26.0
   (422.4 11.5 0) //pt 27.0
   (425.6 9.9 0) //pt 27.0
   (437.6 11.5 0) //pt 28.0
   (440.8 9.9 0) //pt 28.0
   (452.8 11.5 0) //pt 29.0
   (456.0 9.9 0) //pt 29.0
   (468.0 11.5 0) //pt 30.0
   (471.2 9.9 0) //pt 30.0
   (483.2 11.5 0) //pt 31.0
   (486.4 9.9 0) //pt 31.0
   (498.4 11.5 0) //pt 32.0
   (501.6 9.9 0) //pt 32.0
   (513.6 11.5 0) //pt 33.0
   (516.8 9.9 0) //pt 33.0
   (528.8 11.5 0) //pt 34.0
   (532.0 9.9 0) //pt 34.0
   (544.0 11.5 0) //pt 35.0
   (547.2 9.9 0) //pt 35.0
   (559.2 11.5 0) //pt 36.0
   (562.4 9.9 0) //pt 36.0
   (574.4 11.5 0) //pt 37.0
   (577.6 9.9 0) //pt 37.0
   (589.6 11.5 0) //pt 38.0
   (592.8 9.9 0) //pt 38.0
   (604.8 11.5 0) //pt 39.0
   (608.0 9.9 0) //pt 39.0
   (620.0 11.5 0) //pt 40.0
   (623.2 9.9 0) //pt 40.0
   (635.2 11.5 0) //pt 41.0
   (638.4 9.9 0) //pt 41.0
   (650.4 11.5 0) //pt 42.0
   (653.6 9.9 0) //pt 42.0
   (665.6 11.5 0) //pt 43.0
   (668.8 9.9 0) //pt 43.0
   (680.8 11.5 0) //pt 44.0
   (684.0 9.9 0) //pt 44.0
   (696.0 11.5 0) //pt 45.0
   (699.2 9.9 0) //pt 45.0
   (711.2 11.5 0) //pt 46.0
   (714.4 9.9 0) //pt 46.0
   (726.4 11.5 0) //pt 47.0
   (729.6 9.9 0) //pt 47.0
   (741.6 11.5 0) //pt 48.0
   (744.8 9.9 0) //pt 48.0
   (756.8 11.5 0) //pt 49.0
   (760.0 9.9 0) //pt 49.0
   (772.0 11.5 0) //pt 50.0
   (775.2 9.9 0) //pt 50.0
   (787.2 11.5 0) //pt 51.0
   (790.4 9.9 0) //pt 51.0
   (802.4 11.5 0) //pt 52.0
   (805.6 9.9 0) //pt 52.0
   (817.6 11.5 0) //pt 53.0
   (820.8 9.9 0) //pt 53.0
   (832.8 11.5 0) //pt 54.0
   (836.0 9.9 0) //pt 54.0
   (848.0 11.5 0) //pt 55.0
   (851.2 9.9 0) //pt 55.0
   (863.2 11.5 0) //pt 56.0
   (866.4 9.9 0) //pt 56.0
   (878.4 11.5 0) //pt 57.0
   (881.6 9.9 0) //pt 57.0
   (893.6 11.5 0) //pt 58.0
   (896.8 9.9 0) //pt 58.0
   (908.8 11.5 0) //pt 59.0
   (912.0 9.9 0) //pt 59.0
   (924.0 11.5 0) //pt 60.0
   (927.2 9.9 0) //pt 60.0
   (939.2 11.5 0) //pt 61.0
   (942.4 9.9 0) //pt 61.0
   (954.4 11.5 0) //pt 62.0
   (957.6 9.9 0) //pt 62.0
   (969.6 11.5 0) //pt 63.0
   (972.8 9.9 0) //pt 63.0
   (984.8 11.5 0) //pt 64.0
   (988.0 9.9 0) //pt 64.0
   (1000.0 11.5 0) //pt 65.0
   (1003.2 9.9 0) //pt 65.0
   (1015.2 11.5 0) //pt 66.0
   (1018.4 9.9 0) //pt 66.0
   (1030.4 11.5 0) //pt 67.0
   (1033.6 9.9 0) //pt 67.0
   (1045.6 11.5 0) //pt 68.0
   (1048.8 9.9 0) //pt 68.0
   (1060.8 11.5 0) //pt 69.0
   (1064.0 9.9 0) //pt 69.0
   (1076.0 11.5 0) //pt 70.0
   (1079.2 9.9 0) //pt 70.0
   (1091.2 11.5 0) //pt 71.0
   (1094.4 9.9 0) //pt 71.0
   (1106.4 11.5 0) //pt 72.0
   (1109.6 9.9 0) //pt 72.0
   (1121.6 11.5 0) //pt 73.0
   (1124.8 9.9 0) //pt 73.0
   (1136.8 11.5 0) //pt 74.0
   (1140.0 9.9 0) //pt 74.0
   (1152.0 11.5 0) //pt 75.0
   (1155.2 9.9 0) //pt 75.0
   (1167.2 11.5 0) //pt 76.0
   (1170.4 9.9 0) //pt 76.0
   (1182.4 11.5 0) //pt 77.0
   (1185.6 9.9 0) //pt 77.0
   (1197.6 11.5 0) //pt 78.0
   (1200.8 9.9 0) //pt 78.0
   (1212.8 11.5 0) //pt 79.0
   (1216.0 9.9 0) //pt 79.0
   (1228.0 11.5 0) //pt 80.0
   (1231.2 9.9 0) //pt 80.0
   (1243.2 11.5 0) //pt 81.0
   (1246.4 9.9 0) //pt 81.0
   (1258.4 11.5 0) //pt 82.0
   (1261.6 9.9 0) //pt 82.0
   (1273.6 11.5 0) //pt 83.0
   (1276.8 9.9 0) //pt 83.0
   (1288.8 11.5 0) //pt 84.0
   (1292.0 9.9 0) //pt 84.0
   (1304.0 11.5 0) //pt 85.0
   (1307.2 9.9 0) //pt 85.0
   (1319.2 11.5 0) //pt 86.0
   (1322.4 9.9 0) //pt 86.0
   (1334.4 11.5 0) //pt 87.0
   (1337.6 9.9 0) //pt 87.0
   (1349.6 11.5 0) //pt 88.0
   (1352.8 9.9 0) //pt 88.0
   (1364.8 11.5 0) //pt 89.0
   (1368.0 9.9 0) //pt 89.0
   (1380.0 11.5 0) //pt 90.0
   (1383.2 9.9 0) //pt 90.0
   (1395.2 11.5 0) //pt 91.0
   (1398.4 9.9 0) //pt 91.0
   (1410.4 11.5 0) //pt 92.0
   (1413.6 9.9 0) //pt 92.0
   (1425.6 11.5 0) //pt 93.0
   (1428.8 9.9 0) //pt 93.0
   (1440.8 11.5 0) //pt 94.0
   (1444.0 9.9 0) //pt 94.0
   (1456.0 11.5 0) //pt 95.0
   (1459.2 9.9 0) //pt 95.0
   (1471.2 11.5 0) //pt 96.0
   (1474.4 9.9 0) //pt 96.0
   (1486.4 11.5 0) //pt 97.0
   (1489.6 9.9 0) //pt 97.0
   (1501.6 11.5 0) //pt 98.0
   (1504.8 9.9 0) //pt 98.0
   (1516.8 11.5 0) //pt 99.0
   (1520.0 9.9 0) //pt 99.0
   (1532.0 11.5 0) //pt 100.0
   (1535.2 9.9 0) //pt 100.0
   (1547.2 11.5 0) //pt 101.0
   (1550.4 9.9 0) //pt 101.0
   (1562.4 11.5 0) //pt 102.0
   (1565.6 9.9 0) //pt 102.0
   (1577.6 11.5 0) //pt 103.0
   (1580.8 9.9 0) //pt 103.0
   (1592.8 11.5 0) //pt 104.0
   (1596.0 9.9 0) //pt 104.0
   (1608.0 11.5 0) //pt 105.0
   (1611.2 9.9 0) //pt 105.0
   (1623.2 11.5 0) //pt 106.0
   (1626.4 9.9 0) //pt 106.0
   (1638.4 11.5 0) //pt 107.0
   (1641.6 9.9 0) //pt 107.0
   (1653.6 11.5 0) //pt 108.0
   (1656.8 9.9 0) //pt 108.0
   (1668.8 11.5 0) //pt 109.0
   (1672.0 9.9 0) //pt 109.0
   (1684.0 11.5 0) //pt 110.0
   (1687.2 9.9 0) //pt 110.0
   (1699.2 11.5 0) //pt 111.0
   (1702.4 9.9 0) //pt 111.0
   (1714.4 11.5 0) //pt 112.0
   (1717.6 9.9 0) //pt 112.0
   (1729.6 11.5 0) //pt 113.0
   (1732.8 9.9 0) //pt 113.0
   (1744.8 11.5 0) //pt 114.0
   (1748.0 9.9 0) //pt 114.0
   (1760.0 11.5 0) //pt 115.0
   (1763.2 9.9 0) //pt 115.0
   (1775.2 11.5 0) //pt 116.0
   (1778.4 9.9 0) //pt 116.0
   (1790.4 11.5 0) //pt 117.0
   (1793.6 9.9 0) //pt 117.0
   (1805.6 11.5 0) //pt 118.0
   (1808.8 9.9 0) //pt 118.0
   (1820.8 11.5 0) //pt 119.0
   (1824.0 9.9 0) //pt 119.0
   (1836.0 11.5 0) //pt 120.0
   (1839.2 9.9 0) //pt 120.0
   (1851.2 11.5 0) //pt 121.0
   (1854.4 9.9 0) //pt 121.0
   (1866.4 11.5 0) //pt 122.0
   (1869.6 9.9 0) //pt 122.0
   (1881.6 11.5 0) //pt 123.0
   (1884.8 9.9 0) //pt 123.0
   (1896.8 11.5 0) //pt 124.0
   (1900.0 9.9 0) //pt 124.0
   (1912.0 11.5 0) //pt 125.0
   (1915.2 9.9 0) //pt 125.0
   (1927.2 11.5 0) //pt 126.0
   (1930.4 9.9 0) //pt 126.0
   (1942.4 11.5 0) //pt 127.0
   (1945.6 9.9 0) //pt 127.0
   (1957.6 11.5 0) //pt 128.0
   (1960.8 9.9 0) //pt 128.0
   (1972.8 11.5 0) //pt 129.0
   (1976.0 9.9 0) //pt 129.0
   (1988.0 11.5 0) //pt 130.0
   (1991.2 9.9 0) //pt 130.0
   (2003.2 11.5 0) //pt 131.0
   (2006.4 9.9 0) //pt 131.0
   (2018.4 11.5 0) //pt 132.0
   (2021.6 9.9 0) //pt 132.0
   (2033.6 11.5 0) //pt 133.0
   (2036.8 9.9 0) //pt 133.0
   (2048.8 11.5 0) //pt 134.0
   (2052.0 9.9 0) //pt 134.0
   (2064.0 11.5 0) //pt 135.0
   (2067.2 9.9 0) //pt 135.0
   (2079.2 11.5 0) //pt 136.0
   (2082.4 9.9 0) //pt 136.0
   (2094.4 11.5 0) //pt 137.0
   (2097.6 9.9 0) //pt 137.0
   (2109.6 11.5 0) //pt 138.0
   (2112.8 9.9 0) //pt 138.0
   (2124.8 11.5 0) //pt 139.0
   (2128.0 9.9 0) //pt 139.0
   (2140.0 11.5 0) //pt 140.0
   (2143.2 9.9 0) //pt 140.0
   (2155.2 11.5 0) //pt 141.0
   (2158.4 9.9 0) //pt 141.0
   (2170.4 11.5 0) //pt 142.0
   (2173.6 9.9 0) //pt 142.0
   (2185.6 11.5 0) //pt 143.0
   (2188.8 9.9 0) //pt 143.0
   (2200.8 11.5 0) //pt 144.0
   (2204.0 9.9 0) //pt 144.0
   (2216.0 11.5 0) //pt 145.0
   (2219.2 9.9 0) //pt 145.0
   (2231.2 11.5 0) //pt 146.0
   (2234.4 9.9 0) //pt 146.0
   (2246.4 11.5 0) //pt 147.0
   (2249.6 9.9 0) //pt 147.0
   (2261.6 11.5 0) //pt 148.0
   (2264.8 9.9 0) //pt 148.0
   (2276.8 11.5 0) //pt 149.0
   (2280.0 9.9 0) //pt 149.0
   (2292.0 11.5 0) //pt 150.0
   (2295.2 9.9 0) //pt 150.0
   (2307.2 11.5 0) //pt 151.0
   (2310.4 9.9 0) //pt 151.0
   (2322.4 11.5 0) //pt 152.0
   (2325.6 9.9 0) //pt 152.0
   (2337.6 11.5 0) //pt 153.0
   (2340.8 9.9 0) //pt 153.0
   (2352.8 11.5 0) //pt 154.0
   (2356.0 9.9 0) //pt 154.0
   (2368.0 11.5 0) //pt 155.0
   (2371.2 9.9 0) //pt 155.0
   (2383.2 11.5 0) //pt 156.0
   (2386.4 9.9 0) //pt 156.0
   (2398.4 11.5 0) //pt 157.0
   (2401.6 9.9 0) //pt 157.0
   (2413.6 11.5 0) //pt 158.0
   (2416.8 9.9 0) //pt 158.0
   (2428.8 11.5 0) //pt 159.0
   (2432.0 9.9 0) //pt 159.0
   (2444.0 11.5 0) //pt 160.0
   (2447.2 9.9 0) //pt 160.0
   (2459.2 11.5 0) //pt 161.0
   (2462.4 9.9 0) //pt 161.0
   (2474.4 11.5 0) //pt 162.0
   (2477.6 9.9 0) //pt 162.0
   (2489.6 11.5 0) //pt 163.0
   (2492.8 9.9 0) //pt 163.0
   (2504.8 11.5 0) //pt 164.0
   (2508.0 9.9 0) //pt 164.0
   (2520.0 11.5 0) //pt 165.0
   (2523.2 9.9 0) //pt 165.0
   (2535.2 11.5 0) //pt 166.0
   (2538.4 9.9 0) //pt 166.0
   (2550.4 11.5 0) //pt 167.0
   (2553.6 9.9 0) //pt 167.0
   (2565.6 11.5 0) //pt 168.0
   (2568.8 9.9 0) //pt 168.0
   (2580.8 11.5 0) //pt 169.0
   (2584.0 9.9 0) //pt 169.0
   (2596.0 11.5 0) //pt 170.0
   (2599.2 9.9 0) //pt 170.0
   (2611.2 11.5 0) //pt 171.0
   (2614.4 9.9 0) //pt 171.0
   (2626.4 11.5 0) //pt 172.0
   (2629.6 9.9 0) //pt 172.0
   (2641.6 11.5 0) //pt 173.0
   (2644.8 9.9 0) //pt 173.0
   (2656.8 11.5 0) //pt 174.0
   (2660.0 9.9 0) //pt 174.0
   (2672.0 11.5 0) //pt 175.0
   (2675.2 9.9 0) //pt 175.0
   (2687.2 11.5 0) //pt 176.0
   (2690.4 9.9 0) //pt 176.0
   (2702.4 11.5 0) //pt 177.0
   (2705.6 9.9 0) //pt 177.0
   (2717.6 11.5 0) //pt 178.0
   (2720.8 9.9 0) //pt 178.0
   (2732.8 11.5 0) //pt 179.0
   (2736.0 9.9 0) //pt 179.0
   (2748.0 11.5 0) //pt 180.0
   (2751.2 9.9 0) //pt 180.0
   (2763.2 11.5 0) //pt 181.0
   (2766.4 9.9 0) //pt 181.0
   (2778.4 11.5 0) //pt 182.0
   (2781.6 9.9 0) //pt 182.0
   (2793.6 11.5 0) //pt 183.0
   (2796.8 9.9 0) //pt 183.0
   (2808.8 11.5 0) //pt 184.0
   (2812.0 9.9 0) //pt 184.0
   (2824.0 11.5 0) //pt 185.0
   (2827.2 9.9 0) //pt 185.0
   (2839.2 11.5 0) //pt 186.0
   (2842.4 9.9 0) //pt 186.0
   (2854.4 11.5 0) //pt 187.0
   (2857.6 9.9 0) //pt 187.0
   (2869.6 11.5 0) //pt 188.0
   (2872.8 9.9 0) //pt 188.0
   (2884.8 11.5 0) //pt 189.0
   (2888.0 9.9 0) //pt 189.0
   (2900.0 11.5 0) //pt 190.0
   (2903.2 9.9 0) //pt 190.0
   (2915.2 11.5 0) //pt 191.0
   (2918.4 9.9 0) //pt 191.0
   (2930.4 11.5 0) //pt 192.0
   (2933.6 9.9 0) //pt 192.0
   (2945.6 11.5 0) //pt 193.0
   (2948.8 9.9 0) //pt 193.0
   (2960.8 11.5 0) //pt 194.0
   (2964.0 9.9 0) //pt 194.0
   (2976.0 11.5 0) //pt 195.0
   (2979.2 9.9 0) //pt 195.0
   (2991.2 11.5 0) //pt 196.0
   (2994.4 9.9 0) //pt 196.0
   (3006.4 11.5 0) //pt 197.0
   (3009.6 9.9 0) //pt 197.0
   (3021.6 11.5 0) //pt 198.0
   (3024.8 9.9 0) //pt 198.0
   (3036.8 11.5 0) //pt 199.0
   (3040.0 9.9 0) //pt 199.0
   (3052.0 11.5 0) //pt 200.0
   (3055.2 9.9 0) //pt 200.0
   (3067.2 11.5 0) //pt 201.0
   (3070.4 9.9 0) //pt 201.0
   (3082.4 11.5 0) //pt 202.0
   (3085.6 9.9 0) //pt 202.0
   (3097.6 11.5 0) //pt 203.0
   (3100.8 9.9 0) //pt 203.0
   (3112.8 11.5 0) //pt 204.0
   (3116.0 9.9 0) //pt 204.0
   (3128.0 11.5 0) //pt 205.0
   (3131.2 9.9 0) //pt 205.0
   (3143.2 11.5 0) //pt 206.0
   (3146.4 9.9 0) //pt 206.0
   (3158.4 11.5 0) //pt 207.0
   (3161.6 9.9 0) //pt 207.0
   (3173.6 11.5 0) //pt 208.0
   (3176.8 9.9 0) //pt 208.0
   (3188.8 11.5 0) //pt 209.0
   (3192.0 9.9 0) //pt 209.0
   (3204.0 11.5 0) //pt 210.0
   (3207.2 9.9 0) //pt 210.0
   (3219.2 11.5 0) //pt 211.0
   (3222.4 9.9 0) //pt 211.0
   (3234.4 11.5 0) //pt 212.0
   (3237.6 9.9 0) //pt 212.0
   (3249.6 11.5 0) //pt 213.0
   (3252.8 9.9 0) //pt 213.0
   (3264.8 11.5 0) //pt 214.0
   (3268.0 9.9 0) //pt 214.0
   (3280.0 11.5 0) //pt 215.0
   (3283.2 9.9 0) //pt 215.0
   (3295.2 11.5 0) //pt 216.0
   (3298.4 9.9 0) //pt 216.0
   (3310.4 11.5 0) //pt 217.0
   (3313.6 9.9 0) //pt 217.0
   (3325.6 11.5 0) //pt 218.0
   (3328.8 9.9 0) //pt 218.0
   (3340.8 11.5 0) //pt 219.0
   (3344.0 9.9 0) //pt 219.0
   (3356.0 11.5 0) //pt 220.0
   (3359.2 9.9 0) //pt 220.0
   (3371.2 11.5 0) //pt 221.0
   (3374.4 9.9 0) //pt 221.0
   (3386.4 11.5 0) //pt 222.0
   (3389.6 9.9 0) //pt 222.0
   (3401.6 11.5 0) //pt 223.0
   (3404.8 9.9 0) //pt 223.0
   (3416.8 11.5 0) //pt 224.0
   (3420.0 9.9 0) //pt 224.0
   (3432.0 11.5 0) //pt 225.0
   (3435.2 9.9 0) //pt 225.0
   (3447.2 11.5 0) //pt 226.0
   (3450.4 9.9 0) //pt 226.0
   (3462.4 11.5 0) //pt 227.0
   (3465.6 9.9 0) //pt 227.0
   (3477.6 11.5 0) //pt 228.0
   (3480.8 9.9 0) //pt 228.0
   (3492.8 11.5 0) //pt 229.0
   (3496.0 9.9 0) //pt 229.0
   (3508.0 11.5 0) //pt 230.0
   (3511.2 9.9 0) //pt 230.0
   (3523.2 11.5 0) //pt 231.0
   (3526.4 9.9 0) //pt 231.0
   (3538.4 11.5 0) //pt 232.0
   (3541.6 9.9 0) //pt 232.0
   (3553.6 11.5 0) //pt 233.0
   (3556.8 9.9 0) //pt 233.0
   (3568.8 11.5 0) //pt 234.0
   (3572.0 9.9 0) //pt 234.0
   (3584.0 11.5 0) //pt 235.0
   (3587.2 9.9 0) //pt 235.0
   (3599.2 11.5 0) //pt 236.0
   (3602.4 9.9 0) //pt 236.0
   (3614.4 11.5 0) //pt 237.0
   (3617.6 9.9 0) //pt 237.0
   (3629.6 11.5 0) //pt 238.0
   (3632.8 9.9 0) //pt 238.0
   (3644.8 11.5 0) //pt 239.0
   (3648.0 9.9 0) //pt 239.0
   (3660.0 11.5 0) //pt 240.0
   (3663.2 9.9 0) //pt 240.0
   (3675.2 11.5 0) //pt 241.0
   (3678.4 9.9 0) //pt 241.0
   (3690.4 11.5 0) //pt 242.0
   (3693.6 9.9 0) //pt 242.0
   (3705.6 11.5 0) //pt 243.0
   (3708.8 9.9 0) //pt 243.0
   (3720.8 11.5 0) //pt 244.0
   (3724.0 9.9 0) //pt 244.0
   (3736.0 11.5 0) //pt 245.0
   (3739.2 9.9 0) //pt 245.0
   (3751.2 11.5 0) //pt 246.0
   (3754.4 9.9 0) //pt 246.0
   (3766.4 11.5 0) //pt 247.0
   (3769.6 9.9 0) //pt 247.0
   (3781.6 11.5 0) //pt 248.0
   (3784.8 9.9 0) //pt 248.0
   (3796.8 11.5 0) //pt 249.0
   (3800.0 9.9 0) //pt 249.0
   (3812.0 11.5 0) //pt 250.0
   (3815.2 9.9 0) //pt 250.0
   (3827.2 11.5 0) //pt 251.0
   (3830.4 9.9 0) //pt 251.0
   (3842.4 11.5 0) //pt 252.0
   (3845.6 9.9 0) //pt 252.0
   (3857.6 11.5 0) //pt 253.0
   (3860.8 9.9 0) //pt 253.0
   (3872.8 11.5 0) //pt 254.0
   (3876.0 9.9 0) //pt 254.0
   (3888.0 11.5 0) //pt 255.0
   (3891.2 9.9 0) //pt 255.0
   (3903.2 11.5 0) //pt 256.0
   (3906.4 9.9 0) //pt 256.0
   (3918.4 11.5 0) //pt 257.0
   (3921.6 9.9 0) //pt 257.0
   (3933.6 11.5 0) //pt 258.0
   (3936.8 9.9 0) //pt 258.0
   (3948.8 11.5 0) //pt 259.0
   (3952.0 9.9 0) //pt 259.0
   (3964.0 11.5 0) //pt 260.0
   (3967.2 9.9 0) //pt 260.0
   (3979.2 11.5 0) //pt 261.0
   (3982.4 9.9 0) //pt 261.0
   (3994.4 11.5 0) //pt 262.0
   (3997.6 9.9 0) //pt 262.0
   (4009.6 11.5 0) //pt 263.0
   (4012.8 9.9 0) //pt 263.0
   (4024.8 11.5 0) //pt 264.0
   (4028.0 9.9 0) //pt 264.0
   (4040.0 11.5 0) //pt 265.0
   (4043.2 9.9 0) //pt 265.0
   (4055.2 11.5 0) //pt 266.0
   (4058.4 9.9 0) //pt 266.0
   (4070.4 11.5 0) //pt 267.0
   (4073.6 9.9 0) //pt 267.0
   (4085.6 11.5 0) //pt 268.0
   (4088.8 9.9 0) //pt 268.0
   (4100.8 11.5 0) //pt 269.0
   (4104.0 9.9 0) //pt 269.0
   (4116.0 11.5 0) //pt 270.0
   (4119.2 9.9 0) //pt 270.0
   (4131.2 11.5 0) //pt 271.0
   (4134.4 9.9 0) //pt 271.0
   (4146.4 11.5 0) //pt 272.0
   (4149.6 9.9 0) //pt 272.0
   (4161.6 11.5 0) //pt 273.0
   (4164.8 9.9 0) //pt 273.0
   (4176.8 11.5 0) //pt 274.0
   (4180.0 9.9 0) //pt 274.0
   (4192.0 11.5 0) //pt 275.0
   (4195.2 9.9 0) //pt 275.0
   (4207.2 11.5 0) //pt 276.0
   (4210.4 9.9 0) //pt 276.0
   (4222.4 11.5 0) //pt 277.0
   (4225.6 9.9 0) //pt 277.0
   (4237.6 11.5 0) //pt 278.0
   (4240.8 9.9 0) //pt 278.0
   (4252.8 11.5 0) //pt 279.0
   (4256.0 9.9 0) //pt 279.0
   (4268.0 11.5 0) //pt 280.0
   (4271.2 9.9 0) //pt 280.0
   (4283.2 11.5 0) //pt 281.0
   (4286.4 9.9 0) //pt 281.0
   (4298.4 11.5 0) //pt 282.0
   (4301.6 9.9 0) //pt 282.0
   (4313.6 11.5 0) //pt 283.0
   (4316.8 9.9 0) //pt 283.0
   (4328.8 11.5 0) //pt 284.0
   (4332.0 9.9 0) //pt 284.0
   (4344.0 11.5 0) //pt 285.0
   (4347.2 9.9 0) //pt 285.0
   (4359.2 11.5 0) //pt 286.0
   (4362.4 9.9 0) //pt 286.0
   (4374.4 11.5 0) //pt 287.0
   (4377.6 9.9 0) //pt 287.0
   (4389.6 11.5 0) //pt 288.0
   (4392.8 9.9 0) //pt 288.0
   (4404.8 11.5 0) //pt 289.0
   (4408.0 9.9 0) //pt 289.0
   (4420.0 11.5 0) //pt 290.0
   (4423.2 9.9 0) //pt 290.0
   (4435.2 11.5 0) //pt 291.0
   (4438.4 9.9 0) //pt 291.0
   (4450.4 11.5 0) //pt 292.0
   (4453.6 9.9 0) //pt 292.0
   (4465.6 11.5 0) //pt 293.0
   (4468.8 9.9 0) //pt 293.0
   (4480.8 11.5 0) //pt 294.0
   (4484.0 9.9 0) //pt 294.0
   (4496.0 11.5 0) //pt 295.0
   (4499.2 9.9 0) //pt 295.0
   (4511.2 11.5 0) //pt 296.0
   (4514.4 9.9 0) //pt 296.0
   (4526.4 11.5 0) //pt 297.0
   (4529.6 9.9 0) //pt 297.0
   (4541.6 11.5 0) //pt 298.0
   (4544.8 9.9 0) //pt 298.0
   (4556.8 11.5 0) //pt 299.0
   (4560.0 9.9 0) //pt 299.0
   (4572.0 11.5 0) //pt 300.0
   (4575.2 9.9 0) //pt 300.0
   (4587.2 11.5 0) //pt 301.0
   (4590.4 9.9 0) //pt 301.0
   (4602.4 11.5 0) //pt 302.0
   (4605.6 9.9 0) //pt 302.0
   (4617.6 11.5 0) //pt 303.0
   (4620.8 9.9 0) //pt 303.0
   (4632.8 11.5 0) //pt 304.0
   (4636.0 9.9 0) //pt 304.0
   (4648.0 11.5 0) //pt 305.0
   (4651.2 9.9 0) //pt 305.0
   (4663.2 11.5 0) //pt 306.0
   (4666.4 9.9 0) //pt 306.0
   (4678.4 11.5 0) //pt 307.0
   (4681.6 9.9 0) //pt 307.0
   (4693.6 11.5 0) //pt 308.0
   (4696.8 9.9 0) //pt 308.0
   (4708.8 11.5 0) //pt 309.0
   (4712.0 9.9 0) //pt 309.0
   (4724.0 11.5 0) //pt 310.0
   (4727.2 9.9 0) //pt 310.0
   (4739.2 11.5 0) //pt 311.0
   (4742.4 9.9 0) //pt 311.0
   (4754.4 11.5 0) //pt 312.0
   (4757.6 9.9 0) //pt 312.0
   (4769.6 11.5 0) //pt 313.0
   (4772.8 9.9 0) //pt 313.0
   (4784.8 11.5 0) //pt 314.0
   (4788.0 9.9 0) //pt 314.0
   (4800.0 11.5 0) //pt 315.0
   (4803.2 9.9 0) //pt 315.0
   (4815.2 11.5 0) //pt 316.0
   (4818.4 9.9 0) //pt 316.0
   (4830.4 11.5 0) //pt 317.0
   (4833.6 9.9 0) //pt 317.0
   (4845.6 11.5 0) //pt 318.0
   (4848.8 9.9 0) //pt 318.0
   (4860.8 11.5 0) //pt 319.0
   (4864.0 9.9 0) //pt 319.0
   (4876.0 11.5 0) //pt 320.0
   (4879.2 9.9 0) //pt 320.0
   (4891.2 11.5 0) //pt 321.0
   (4894.4 9.9 0) //pt 321.0
   (4906.4 11.5 0) //pt 322.0
   (4909.6 9.9 0) //pt 322.0
   (4921.6 11.5 0) //pt 323.0
   (4924.8 9.9 0) //pt 323.0
   (4936.8 11.5 0) //pt 324.0
   (4940.0 9.9 0) //pt 324.0
   (4952.0 11.5 0) //pt 325.0
   (4955.2 9.9 0) //pt 325.0
   (4967.2 11.5 0) //pt 326.0
   (4970.4 9.9 0) //pt 326.0
   (4982.4 11.5 0) //pt 327.0
   (4985.6 9.9 0) //pt 327.0
   (4997.6 11.5 0) //pt 328.0
   (5000.8 9.9 0) //pt 328.0
   (5012.8 11.5 0) //pt 329.0
   (5016.0 9.9 0) //pt 329.0
   (5028.0 11.5 0) //pt 330.0
   (5031.2 9.9 0) //pt 330.0
   (5043.2 11.5 0) //pt 331.0
   (5046.4 9.9 0) //pt 331.0
   (5058.4 11.5 0) //pt 332.0
   (5061.6 9.9 0) //pt 332.0
   (5073.6 11.5 0) //pt 333.0
   (5076.8 9.9 0) //pt 333.0
   (5088.8 11.5 0) //pt 334.0
   (5092.0 9.9 0) //pt 334.0
   (5104.0 11.5 0) //pt 335.0
   (5107.2 9.9 0) //pt 335.0
   (5119.2 11.5 0) //pt 336.0
   (5122.4 9.9 0) //pt 336.0
   (5134.4 11.5 0) //pt 337.0
   (5137.6 9.9 0) //pt 337.0
   (5149.6 11.5 0) //pt 338.0
   (5152.8 9.9 0) //pt 338.0
   (5164.8 11.5 0) //pt 339.0
   (5168.0 9.9 0) //pt 339.0
   (5180.0 11.5 0) //pt 340.0
   (5183.2 9.9 0) //pt 340.0
   (5195.2 11.5 0) //pt 341.0
   (5198.4 9.9 0) //pt 341.0
   (5210.4 11.5 0) //pt 342.0
   (5213.6 9.9 0) //pt 342.0
   (5225.6 11.5 0) //pt 343.0
   (5228.8 9.9 0) //pt 343.0
   (5240.8 11.5 0) //pt 344.0
   (5244.0 9.9 0) //pt 344.0
   (5256.0 11.5 0) //pt 345.0
   (5259.2 9.9 0) //pt 345.0
   (5271.2 11.5 0) //pt 346.0
   (5274.4 9.9 0) //pt 346.0
   (5286.4 11.5 0) //pt 347.0
   (5289.6 9.9 0) //pt 347.0
   (5301.6 11.5 0) //pt 348.0
   (5304.8 9.9 0) //pt 348.0
   (5316.8 11.5 0) //pt 349.0
   (5320.0 9.9 0) //pt 349.0
   (5332.0 11.5 0) //pt 350.0
   (5335.2 9.9 0) //pt 350.0
   (5347.2 11.5 0) //pt 351.0
   (5350.4 9.9 0) //pt 351.0
   (5362.4 11.5 0) //pt 352.0
   (5365.6 9.9 0) //pt 352.0
   (5377.6 11.5 0) //pt 353.0
   (5380.8 9.9 0) //pt 353.0
   (5392.8 11.5 0) //pt 354.0
   (5396.0 9.9 0) //pt 354.0
   (5408.0 11.5 0) //pt 355.0
   (5411.2 9.9 0) //pt 355.0
   (5423.2 11.5 0) //pt 356.0
   (5426.4 9.9 0) //pt 356.0
   (5438.4 11.5 0) //pt 357.0
   (5441.6 9.9 0) //pt 357.0
   (5453.6 11.5 0) //pt 358.0
   (5456.8 9.9 0) //pt 358.0
   (5468.8 11.5 0) //pt 359.0
   (5472.0 9.9 0) //pt 359.0
   (5484.0 11.5 0) //pt 360.0
   (5487.2 9.9 0) //pt 360.0
   (5499.2 11.5 0) //pt 361.0
   (5502.4 9.9 0) //pt 361.0
   (5514.4 11.5 0) //pt 362.0
   (5517.6 9.9 0) //pt 362.0
   (5529.6 11.5 0) //pt 363.0
   (5532.8 9.9 0) //pt 363.0
   (5544.8 11.5 0) //pt 364.0
   (5548.0 9.9 0) //pt 364.0
   (5560.0 11.5 0) //pt 365.0
   (5563.2 9.9 0) //pt 365.0
   (5575.2 11.5 0) //pt 366.0
   (5578.4 9.9 0) //pt 366.0
   (5590.4 11.5 0) //pt 367.0
   (5593.6 9.9 0) //pt 367.0
   (5605.6 11.5 0) //pt 368.0
   (5608.8 9.9 0) //pt 368.0
   (5620.8 11.5 0) //pt 369.0
   (5624.0 9.9 0) //pt 369.0
   (5636.0 11.5 0) //pt 370.0
   (5639.2 9.9 0) //pt 370.0
   (5651.2 11.5 0) //pt 371.0
   (5654.4 9.9 0) //pt 371.0
   (5666.4 11.5 0) //pt 372.0
   (5669.6 9.9 0) //pt 372.0
   (5681.6 11.5 0) //pt 373.0
   (5684.8 9.9 0) //pt 373.0
   (5696.8 11.5 0) //pt 374.0
   (5700.0 9.9 0) //pt 374.0
   (5712.0 11.5 0) //pt 375.0
   (5715.2 9.9 0) //pt 375.0
   (5727.2 11.5 0) //pt 376.0
   (5730.4 9.9 0) //pt 376.0
   (5742.4 11.5 0) //pt 377.0
   (5745.6 9.9 0) //pt 377.0
   (5757.6 11.5 0) //pt 378.0
   (5760.8 9.9 0) //pt 378.0
   (5772.8 11.5 0) //pt 379.0
   (5776.0 9.9 0) //pt 379.0
   (5788.0 11.5 0) //pt 380.0
   (5791.2 9.9 0) //pt 380.0
   (5803.2 11.5 0) //pt 381.0
   (5806.4 9.9 0) //pt 381.0
   (5818.4 11.5 0) //pt 382.0
   (5821.6 9.9 0) //pt 382.0
   (5833.6 11.5 0) //pt 383.0
   (5836.8 9.9 0) //pt 383.0
   (5848.8 11.5 0) //pt 384.0
   (5852.0 9.9 0) //pt 384.0
   (5864.0 11.5 0) //pt 385.0
   (5867.2 9.9 0) //pt 385.0
   (5879.2 11.5 0) //pt 386.0
   (5882.4 9.9 0) //pt 386.0
   (5894.4 11.5 0) //pt 387.0
   (5897.6 9.9 0) //pt 387.0
   (5909.6 11.5 0) //pt 388.0
   (5912.8 9.9 0) //pt 388.0
   (5924.8 11.5 0) //pt 389.0
   (5928.0 9.9 0) //pt 389.0
   (5940.0 11.5 0) //pt 390.0
   (5943.2 9.9 0) //pt 390.0
   (5955.2 11.5 0) //pt 391.0
   (5958.4 9.9 0) //pt 391.0
   (5970.4 11.5 0) //pt 392.0
   (5973.6 9.9 0) //pt 392.0
   (5985.6 11.5 0) //pt 393.0
   (5988.8 9.9 0) //pt 393.0
   (6000.8 11.5 0) //pt 394.0
   (6004.0 9.9 0) //pt 394.0
   (6016.0 11.5 0) //pt 395.0
   (6019.2 9.9 0) //pt 395.0
   (6031.2 11.5 0) //pt 396.0
   (6034.4 9.9 0) //pt 396.0
   (6046.4 11.5 0) //pt 397.0
   (6049.6 9.9 0) //pt 397.0
   (6061.6 11.5 0) //pt 398.0
   (6064.8 9.9 0) //pt 398.0
   (6076.8 11.5 0) //pt 399.0
   (6080.0 9.9 0) //pt 399.0
   (6092.0 11.5 0) //pt 400.0
   (6095.2 9.9 0) //pt 400.0
   (6107.2 11.5 0) //pt 401.0
   (6110.4 9.9 0) //pt 401.0
   (6122.4 11.5 0) //pt 402.0
   (6125.6 9.9 0) //pt 402.0
   (6137.6 11.5 0) //pt 403.0
   (6140.8 9.9 0) //pt 403.0
   (6152.8 11.5 0) //pt 404.0
   (6156.0 9.9 0) //pt 404.0
   (6168.0 11.5 0) //pt 405.0
   (6171.2 9.9 0) //pt 405.0
   (6183.2 11.5 0) //pt 406.0
   (6186.4 9.9 0) //pt 406.0
   (6198.4 11.5 0) //pt 407.0
   (6201.6 9.9 0) //pt 407.0
   (6213.6 11.5 0) //pt 408.0
   (6216.8 9.9 0) //pt 408.0
   (6228.8 11.5 0) //pt 409.0
   (6232.0 9.9 0) //pt 409.0
   (6244.0 11.5 0) //pt 410.0
   (6247.2 9.9 0) //pt 410.0
   (6259.2 11.5 0) //pt 411.0
   (6262.4 9.9 0) //pt 411.0
   (6274.4 11.5 0) //pt 412.0
   (6277.6 9.9 0) //pt 412.0
   (6289.6 11.5 0) //pt 413.0
   (6292.8 9.9 0) //pt 413.0
   (6304.8 11.5 0) //pt 414.0
   (6308.0 9.9 0) //pt 414.0
   (6320.0 11.5 0) //pt 415.0
   (6323.2 9.9 0) //pt 415.0
   (6335.2 11.5 0) //pt 416.0
   (6338.4 9.9 0) //pt 416.0
   (6350.4 11.5 0) //pt 417.0
   (6353.6 9.9 0) //pt 417.0
   (6365.6 11.5 0) //pt 418.0
   (6368.8 9.9 0) //pt 418.0
   (6380.8 11.5 0) //pt 419.0
   (6384.0 9.9 0) //pt 419.0
   (6396.0 11.5 0) //pt 420.0
   (6399.2 9.9 0) //pt 420.0
   (6411.2 11.5 0) //pt 421.0
   (6414.4 9.9 0) //pt 421.0
   (6426.4 11.5 0) //pt 422.0
   (6429.6 9.9 0) //pt 422.0
   (6441.6 11.5 0) //pt 423.0
   (6444.8 9.9 0) //pt 423.0
   (6456.8 11.5 0) //pt 424.0
   (6460.0 9.9 0) //pt 424.0
   (6472.0 11.5 0) //pt 425.0
   (6475.2 9.9 0) //pt 425.0
   (6487.2 11.5 0) //pt 426.0
   (6490.4 9.9 0) //pt 426.0
   (6502.4 11.5 0) //pt 427.0
   (6505.6 9.9 0) //pt 427.0
   (6517.6 11.5 0) //pt 428.0
   (6520.8 9.9 0) //pt 428.0
   (6532.8 11.5 0) //pt 429.0
   (6536.0 9.9 0) //pt 429.0
   (6548.0 11.5 0) //pt 430.0
   (6551.2 9.9 0) //pt 430.0
   (6563.2 11.5 0) //pt 431.0
   (6566.4 9.9 0) //pt 431.0
   (6578.4 11.5 0) //pt 432.0
   (6581.6 9.9 0) //pt 432.0
   (6593.6 11.5 0) //pt 433.0
   (6596.8 9.9 0) //pt 433.0
   (6608.8 11.5 0) //pt 434.0
   (6612.0 9.9 0) //pt 434.0
   (6624.0 11.5 0) //pt 435.0
   (6627.2 9.9 0) //pt 435.0
   (6639.2 11.5 0) //pt 436.0
   (6642.4 9.9 0) //pt 436.0
   (6654.4 11.5 0) //pt 437.0
   (6657.6 9.9 0) //pt 437.0
   (6669.6 11.5 0) //pt 438.0
   (6672.8 9.9 0) //pt 438.0
   (6684.8 11.5 0) //pt 439.0
   (6688.0 9.9 0) //pt 439.0
   (6700.0 11.5 0) //pt 440.0
   (6703.2 9.9 0) //pt 440.0
   (6715.2 11.5 0) //pt 441.0
   (6718.4 9.9 0) //pt 441.0
   (6730.4 11.5 0) //pt 442.0
   (6733.6 9.9 0) //pt 442.0
   (6745.6 11.5 0) //pt 443.0
   (6748.8 9.9 0) //pt 443.0
   (6760.8 11.5 0) //pt 444.0
   (6764.0 9.9 0) //pt 444.0
   (6776.0 11.5 0) //pt 445.0
   (6779.2 9.9 0) //pt 445.0
   (6791.2 11.5 0) //pt 446.0
   (6794.4 9.9 0) //pt 446.0
   (6806.4 11.5 0) //pt 447.0
   (6809.6 9.9 0) //pt 447.0
   (6821.6 11.5 0) //pt 448.0
   (6824.8 9.9 0) //pt 448.0
   (6836.8 11.5 0) //pt 449.0
   (6840.0 9.9 0) //pt 449.0
   (6852.0 11.5 0) //pt 450.0
   (6855.2 9.9 0) //pt 450.0
   (6867.2 11.5 0) //pt 451.0
   (6870.4 9.9 0) //pt 451.0
   (6882.4 11.5 0) //pt 452.0
   (6885.6 9.9 0) //pt 452.0
   (6897.6 11.5 0) //pt 453.0
   (6900.8 9.9 0) //pt 453.0
   (6912.8 11.5 0) //pt 454.0
   (6916.0 9.9 0) //pt 454.0
   (6928.0 11.5 0) //pt 455.0
   (6931.2 9.9 0) //pt 455.0
   (6943.2 11.5 0) //pt 456.0
   (6946.4 9.9 0) //pt 456.0
   (6958.4 11.5 0) //pt 457.0
   (6961.6 9.9 0) //pt 457.0
   (6973.6 11.5 0) //pt 458.0
   (6976.8 9.9 0) //pt 458.0
   (6988.8 11.5 0) //pt 459.0
   (6992.0 9.9 0) //pt 459.0
   (7004.0 11.5 0) //pt 460.0
   (7007.2 9.9 0) //pt 460.0
   (7019.2 11.5 0) //pt 461.0
   (7022.4 9.9 0) //pt 461.0
   (7034.4 11.5 0) //pt 462.0
   (7037.6 9.9 0) //pt 462.0
   (7049.6 11.5 0) //pt 463.0
   (7052.8 9.9 0) //pt 463.0
   (7064.8 11.5 0) //pt 464.0
   (7068.0 9.9 0) //pt 464.0
   (7080.0 11.5 0) //pt 465.0
   (7083.2 9.9 0) //pt 465.0
   (7095.2 11.5 0) //pt 466.0
   (7098.4 9.9 0) //pt 466.0
   (7110.4 11.5 0) //pt 467.0
   (7113.6 9.9 0) //pt 467.0
   (7125.6 11.5 0) //pt 468.0
   (7128.8 9.9 0) //pt 468.0
   (7140.8 11.5 0) //pt 469.0
   (7144.0 9.9 0) //pt 469.0
   (7156.0 11.5 0) //pt 470.0
   (7159.2 9.9 0) //pt 470.0
   (7171.2 11.5 0) //pt 471.0
   (7174.4 9.9 0) //pt 471.0
   (7186.4 11.5 0) //pt 472.0
   (7189.6 9.9 0) //pt 472.0
   (7201.6 11.5 0) //pt 473.0
   (7204.8 9.9 0) //pt 473.0
   (7216.8 11.5 0) //pt 474.0
   (7220.0 9.9 0) //pt 474.0
   (7232.0 11.5 0) //pt 475.0
   (7235.2 9.9 0) //pt 475.0
   (7247.2 11.5 0) //pt 476.0
   (7250.4 9.9 0) //pt 476.0
   (7262.4 11.5 0) //pt 477.0
   (7265.6 9.9 0) //pt 477.0
   (7277.6 11.5 0) //pt 478.0
   (7280.8 9.9 0) //pt 478.0
   (7292.8 11.5 0) //pt 479.0
   (7296.0 9.9 0) //pt 479.0
   (7308.0 11.5 0) //pt 480.0
   (7311.2 9.9 0) //pt 480.0
   (7323.2 11.5 0) //pt 481.0
   (7326.4 9.9 0) //pt 481.0
   (7338.4 11.5 0) //pt 482.0
   (7341.6 9.9 0) //pt 482.0
   (7353.6 11.5 0) //pt 483.0
   (7356.8 9.9 0) //pt 483.0