/*--------------------------------*- C++ -*----------------------------------*\
| =========                 |                                                 |
| \\      /  F ield         | OpenFOAM: The Open Source CFD Toolbox           |
|  \\    /   O peration     | Version:  5.x                                   |
|   \\  /    A nd           | Web:      www.OpenFOAM.org                      |
|    \\/     M anipulation  |                                                 |
\*---------------------------------------------------------------------------*/
FoamFile
{
    version     2.0;
    format      ascii;
    class       volScalarField;
    location    "0/subsurface";
    object      k_Coeff;
}
// * * * * * * * * * * * * * * * * * * * * * * * * * * * * * * * * * * * * * //

dimensions      [0 0 0 0 0 0 0];

internalField   uniform 1;
;


boundaryField
{
    left 
    {
        type            cyclic;
    }
    frontAndBack
    {
        type            empty;
    }
    right
    {
        type            cyclic;
    }
    top
    {
        type            zeroGradient;
    }
    bottom 
    {
        type            zeroGradient;
    }
}



// ************************************************************************* //
