/*--------------------------------*- C++ -*----------------------------------*\
| =========                 |                                                 |
| \\      /  F ield         | OpenFOAM: The Open Source CFD Toolbox           |
|  \\    /   O peration     | Version:  5.x                                   |
|   \\  /    A nd           | Web:      www.OpenFOAM.org                      |
|    \\/     M anipulation  |                                                 |
\*---------------------------------------------------------------------------*/
FoamFile
{
    version     2.0;
    format      ascii;
    class       volScalarField;
    location    "10";
    object      O2;
}
// * * * * * * * * * * * * * * * * * * * * * * * * * * * * * * * * * * * * * //

dimensions      [0 0 0 0 0 0 0];

internalField   uniform 0.31;   //mmol/L

boundaryField
{
    left
    {
        type            cyclic;
    }
    bottom
    {
        type            chesurfaceBottom;
        YiFromSub       uniform 0;
        phi             phi;
        value           uniform 0;
    }
   top
    {
        type            surfaceReaeration;
        Cs              uniform 0.31;
        K_L             uniform 3.48e-06;
        value           uniform 0;
    }
    right
    {
        type            cyclic;
    }
    frontAndBack
    {
        type            empty;
    }
}


// ************************************************************************* //
